Version 4.1
SHEET 1 880 680
WIRE 320 0 208 0
WIRE 208 64 208 0
WIRE 320 64 320 0
WIRE 208 96 208 64
WIRE 160 160 96 160
WIRE 96 256 96 160
WIRE 208 256 208 192
WIRE 320 256 320 144
FLAG 208 256 0
FLAG 96 256 0
FLAG 320 256 0
FLAG 208 64 Vd
SYMBOL njf 160 96 R0
SYMATTR InstName J1
SYMATTR Value BF245B
SYMBOL voltage 320 48 R0
WINDOW 123 0 0 Left 0
WINDOW 39 0 0 Left 0
SYMATTR InstName V1
SYMATTR Value 15
TEXT 440 0 Left 2 !.MODEL  BF245B   NJF\n+             VTO = -2.3085E+000\n+            BETA = 1.09045E-003\n+          LAMBDA = 2.31754E-003\n+              RD = 7.77648E+000\n+              RS = 7.77648E+000\n+              IS = 2.59121E-016\n+            CGS  = 2.00000E-012\n+            CGD  = 2.20000E-012\n+              PB = 9.91494E-001\n+              FC = 5.00000E-001
TEXT 88 296 Left 2 !.dc V1 0 15 .1
